/*---------------------------------------------------------------------------*\
| =========                 |                                                 |
| \\      /  F ield         | OpenFOAM: The Open Source CFD Toolbox           |
|  \\    /   O peration     | Version:  v1912                                 |
|   \\  /    A nd           | Website:  www.openfoam.com                      |
|    \\/     M anipulation  |                                                 |
\*---------------------------------------------------------------------------*/
Build  : _f3950763fe-20191219 OPENFOAM=1912
Arch   : "LSB;label=32;scalar=64"
Exec   : buoyantPimpleFoam -parallel
Date   : Aug 19 2020
Time   : 13:56:33
Host   : theoong-NH5x-7xDCx-DDx
PID    : 294373
I/O    : uncollated
Case   : /mnt/200GB/Github/turbulenceModelling/OpenFOAM_Examples/Quasi_DNS_Dowtherm_Mixed_Conv/exptCases/expt_IDDESCase_bousinesq
nProcs : 6
Hosts  :
(
    (theoong-NH5x-7xDCx-DDx 6)
)
Pstream initialized with:
    floatTransfer      : 0
    nProcsSimpleSum    : 0
    commsType          : nonBlocking
    polling iterations : 0
trapFpe: Floating point exception trapping enabled (FOAM_SIGFPE).
fileModificationChecking : Monitoring run-time modified files using timeStampMaster (fileModificationSkew 10)
allowSystemOperations : Allowing user-supplied system call operations

// * * * * * * * * * * * * * * * * * * * * * * * * * * * * * * * * * * * * * //
Create time

Create mesh for time = 0


PIMPLE: max iterations = 1000
    field U	: relTol 0, tolerance 0.05
    field p	: relTol 0, tolerance 0.05

Reading thermophysical properties

Selecting thermodynamics package 
{
    type            heRhoThermo;
    mixture         pureMixture;
    transport       polynomial;
    thermo          hPolynomial;
    equationOfState icoPolynomial;
    specie          specie;
    energy          sensibleInternalEnergy;
}

Reading field U

Reading/calculating face flux field phi

Creating turbulence model

Selecting turbulence model type LES
Selecting LES turbulence model kOmegaSSTIDDES
Selecting LES delta type IDDESDelta
Selecting LES hmax type maxDeltaxyzCubeRoot
Selecting patchDistMethod meshWave
--> FOAM Warning : 
    From function const volVectorField& Foam::wallDist::n() const
    in file fvMesh/wallDist/wallDist/wallDist.C at line 202
    n requested but 'nRequired' not specified in the wallDist dictionary
    Recalculating y and n fields.
Creating finite volume options from "constant/fvOptions"

Selecting finite volume options type meanVelocityForce
    Source: momentumSource
    - selecting all cells
    - selected 204768 cell(s) with volume 8.1e-05
    Initial pressure gradient = 0

LES
{
    turbulence      on;
    LESModel        kOmegaSSTIDDES;
    printCoeffs     on;
    delta           IDDESDelta;
    IDDESDeltaCoeffs
    {
        hmax            maxDeltaxyzCubeRoot;
        maxDeltaxyzCubeRootCoeffs
        {
        }
    }
    Prt             0.85;
    Ce              1.048;
    alphaK1         0.85;
    alphaK2         1;
    alphaOmega1     0.5;
    alphaOmega2     0.856;
    gamma1          0.555556;
    gamma2          0.44;
    beta1           0.075;
    beta2           0.0828;
    betaStar        0.09;
    a1              0.31;
    b1              1;
    c1              10;
    F3              false;
    decayControl    false;
    kInf            0;
    omegaInf        0;
    kappa           0.41;
    CDESkom         0.82;
    CDESkeps        0.6;
    Cdt1            20;
    Cdt2            3;
    Cl              5;
    Ct              1.87;
}


Reading g

Reading hRef
Calculating field g.h

Reading field p_rgh

Creating field dpdt

Creating field kinetic energy K

No MRF models present

Radiation model not active: radiationProperties not found
Selecting radiationModel none
Courant Number mean: 0 max: 0

Starting time loop

fieldAverage fieldAverage1:
    Restarting averaging for fields:
        U: starting averaging at time 0
        p: starting averaging at time 0

Selecting heat transfer coefficient model fixedReferenceTemperature
Selecting heat transfer coefficient model fixedReferenceTemperature
wallShearStress localWallShearStress:
    processing wall patches: 
        leftWall
        rightWall

surfaceFieldValue avg_ValuesRight:
    operation     = areaAverage


surfaceFieldValue avg_ValuesLeft:
    operation     = areaAverage


Reading set description:
    faceLineIntersection
    uniformPoints

Courant Number mean: 0 max: 0
deltaT = 0.00024
Time = 0.00024

diagonal:  Solving for rho, Initial residual = 0, Final residual = 0, No Iterations 0
PIMPLE: iteration 1
DILUPBiCGStab:  Solving for Ux, Initial residual = 0.999999, Final residual = 0.00155367, No Iterations 1
DILUPBiCGStab:  Solving for Uy, Initial residual = 1, Final residual = 0.000572645, No Iterations 1
DILUPBiCGStab:  Solving for Uz, Initial residual = 1, Final residual = 0.00188763, No Iterations 1
Pressure gradient source: uncorrected Ubar = -1.0153e-08, pressure gradient = 2.17574e+08
DILUPBiCGStab:  Solving for e, Initial residual = 1, Final residual = 0.000564171, No Iterations 1
GAMG:  Solving for p_rgh, Initial residual = 0.978903, Final residual = 0.00621231, No Iterations 5
Pressure gradient source: uncorrected Ubar = 0.111601, pressure gradient = 1.10219e+08
diagonal:  Solving for rho, Initial residual = 0, Final residual = 0, No Iterations 0
time step continuity errors : sum local = 2.3602e-08, global = -2.86334e-10, cumulative = -2.86334e-10
GAMG:  Solving for p_rgh, Initial residual = 0.529159, Final residual = 0.00367912, No Iterations 5
Pressure gradient source: uncorrected Ubar = 0.111638, pressure gradient = 1.10184e+08
diagonal:  Solving for rho, Initial residual = 0, Final residual = 0, No Iterations 0
time step continuity errors : sum local = 8.88569e-09, global = -2.86334e-10, cumulative = -5.72668e-10
GAMG:  Solving for p_rgh, Initial residual = 0.724003, Final residual = 0.00591298, No Iterations 5
Pressure gradient source: uncorrected Ubar = 0.111627, pressure gradient = 1.10194e+08
diagonal:  Solving for rho, Initial residual = 0, Final residual = 0, No Iterations 0
time step continuity errors : sum local = 8.6458e-09, global = -2.86334e-10, cumulative = -8.59002e-10
PIMPLE: iteration 2
DILUPBiCGStab:  Solving for Ux, Initial residual = 0.29674, Final residual = 0.000478082, No Iterations 1
DILUPBiCGStab:  Solving for Uy, Initial residual = 0.579341, Final residual = 0.000417791, No Iterations 1
DILUPBiCGStab:  Solving for Uz, Initial residual = 0.503165, Final residual = 0.00087676, No Iterations 1
Pressure gradient source: uncorrected Ubar = 0.449414, pressure gradient = -1.04546e+08
DILUPBiCGStab:  Solving for e, Initial residual = 0.322414, Final residual = 0.000122615, No Iterations 1
GAMG:  Solving for p_rgh, Initial residual = 0.877924, Final residual = 0.00830364, No Iterations 27
Pressure gradient source: uncorrected Ubar = 0.339322, pressure gradient = 1.35727e+06
diagonal:  Solving for rho, Initial residual = 0, Final residual = 0, No Iterations 0
time step continuity errors : sum local = 1.80542e-07, global = -1.64189e-07, cumulative = -1.65048e-07
GAMG:  Solving for p_rgh, Initial residual = 0.145707, Final residual = 0.00136477, No Iterations 25
Pressure gradient source: uncorrected Ubar = 0.339285, pressure gradient = 1.39264e+06
diagonal:  Solving for rho, Initial residual = 0, Final residual = 0, No Iterations 0
time step continuity errors : sum local = 1.71375e-07, global = -1.64189e-07, cumulative = -3.29237e-07
GAMG:  Solving for p_rgh, Initial residual = 0.159067, Final residual = 0.00154901, No Iterations 26
Pressure gradient source: uncorrected Ubar = 0.339295, pressure gradient = 1.38321e+06
diagonal:  Solving for rho, Initial residual = 0, Final residual = 0, No Iterations 0
time step continuity errors : sum local = 1.70869e-07, global = -1.64189e-07, cumulative = -4.93427e-07
PIMPLE: iteration 3
DILUPBiCGStab:  Solving for Ux, Initial residual = 0.343052, Final residual = 0.000588448, No Iterations 1
DILUPBiCGStab:  Solving for Uy, Initial residual = 0.256201, Final residual = 0.000515562, No Iterations 1
DILUPBiCGStab:  Solving for Uz, Initial residual = 0.00463564, Final residual = 6.75736e-06, No Iterations 1
Pressure gradient source: uncorrected Ubar = 0.22619, pressure gradient = 1.37385e+06
DILUPBiCGStab:  Solving for e, Initial residual = 0.193366, Final residual = 4.57296e-05, No Iterations 1
GAMG:  Solving for p_rgh, Initial residual = 0.767367, Final residual = 0.00691221, No Iterations 37
Pressure gradient source: uncorrected Ubar = 0.226184, pressure gradient = 1.37947e+06
diagonal:  Solving for rho, Initial residual = 0, Final residual = 0, No Iterations 0
time step continuity errors : sum local = 1.08677e-05, global = -1.07773e-05, cumulative = -1.12707e-05
GAMG:  Solving for p_rgh, Initial residual = 0.0347605, Final residual = 0.000333406, No Iterations 31
Pressure gradient source: uncorrected Ubar = 0.226184, pressure gradient = 1.37948e+06
diagonal:  Solving for rho, Initial residual = 0, Final residual = 0, No Iterations 0
time step continuity errors : sum local = 1.08636e-05, global = -1.07773e-05, cumulative = -2.20479e-05
GAMG:  Solving for p_rgh, Initial residual = 0.0371368, Final residual = 0.000346946, No Iterations 32
Pressure gradient source: uncorrected Ubar = 0.226184, pressure gradient = 1.37947e+06
diagonal:  Solving for rho, Initial residual = 0, Final residual = 0, No Iterations 0
time step continuity errors : sum local = 1.08512e-05, global = -1.07773e-05, cumulative = -3.28252e-05
PIMPLE: iteration 4
DILUPBiCGStab:  Solving for Ux, Initial residual = 0.339474, Final residual = 0.000582989, No Iterations 1
DILUPBiCGStab:  Solving for Uy, Initial residual = 0.245682, Final residual = 0.000507978, No Iterations 1
DILUPBiCGStab:  Solving for Uz, Initial residual = 0.00513653, Final residual = 7.75839e-06, No Iterations 1
Pressure gradient source: uncorrected Ubar = 0.226195, pressure gradient = 1.36512e+06
DILUPBiCGStab:  Solving for e, Initial residual = 0.154813, Final residual = 0.000101622, No Iterations 1
GAMG:  Solving for p_rgh, Initial residual = 0.778096, Final residual = 0.00688985, No Iterations 37
Pressure gradient source: uncorrected Ubar = 0.226187, pressure gradient = 1.3732e+06
diagonal:  Solving for rho, Initial residual = 0, Final residual = 0, No Iterations 0
time step continuity errors : sum local = 0.00069589, global = -0.000690268, cumulative = -0.000723093
GAMG:  Solving for p_rgh, Initial residual = 0.0343159, Final residual = 0.000325399, No Iterations 31
Pressure gradient source: uncorrected Ubar = 0.226187, pressure gradient = 1.37321e+06
diagonal:  Solving for rho, Initial residual = 0, Final residual = 0, No Iterations 0
time step continuity errors : sum local = 0.000695641, global = -0.000690268, cumulative = -0.00141336
GAMG:  Solving for p_rgh, Initial residual = 0.0366474, Final residual = 0.000339323, No Iterations 32
Pressure gradient source: uncorrected Ubar = 0.226187, pressure gradient = 1.3732e+06
diagonal:  Solving for rho, Initial residual = 0, Final residual = 0, No Iterations 0
time step continuity errors : sum local = 0.000694881, global = -0.000690268, cumulative = -0.00210363
PIMPLE: iteration 5
DILUPBiCGStab:  Solving for Ux, Initial residual = 0.339405, Final residual = 0.000639436, No Iterations 1
DILUPBiCGStab:  Solving for Uy, Initial residual = 0.244607, Final residual = 0.000807871, No Iterations 1
DILUPBiCGStab:  Solving for Uz, Initial residual = 0.146505, Final residual = 0.00025747, No Iterations 1
Pressure gradient source: uncorrected Ubar = 0.226192, pressure gradient = 1.36119e+06
DILUPBiCGStab:  Solving for e, Initial residual = 0.828855, Final residual = 0.00289008, No Iterations 1
GAMG:  Solving for p_rgh, Initial residual = 0.807415, Final residual = 0.0072783, No Iterations 32
Pressure gradient source: uncorrected Ubar = 0.226185, pressure gradient = 1.36804e+06
diagonal:  Solving for rho, Initial residual = 0, Final residual = 0, No Iterations 0
time step continuity errors : sum local = 0.0448264, global = -0.0444546, cumulative = -0.0465583
GAMG:  Solving for p_rgh, Initial residual = 0.0413601, Final residual = 0.000378758, No Iterations 27
Pressure gradient source: uncorrected Ubar = 0.226185, pressure gradient = 1.36812e+06
diagonal:  Solving for rho, Initial residual = 0, Final residual = 0, No Iterations 0
time step continuity errors : sum local = 0.0447962, global = -0.0444546, cumulative = -0.0910129
GAMG:  Solving for p_rgh, Initial residual = 0.0436014, Final residual = 0.000401646, No Iterations 28
Pressure gradient source: uncorrected Ubar = 0.226185, pressure gradient = 1.36825e+06
diagonal:  Solving for rho, Initial residual = 0, Final residual = 0, No Iterations 0
time step continuity errors : sum local = 0.0447577, global = -0.0444546, cumulative = -0.135468
PIMPLE: iteration 6
DILUPBiCGStab:  Solving for Ux, Initial residual = 0.211249, Final residual = 0.00244145, No Iterations 1
DILUPBiCGStab:  Solving for Uy, Initial residual = 0.059532, Final residual = 0.000699809, No Iterations 1
DILUPBiCGStab:  Solving for Uz, Initial residual = 0.325472, Final residual = 0.0012645, No Iterations 1
Pressure gradient source: uncorrected Ubar = 0.225966, pressure gradient = 1.58425e+06
DILUPBiCGStab:  Solving for e, Initial residual = 0.992105, Final residual = 0.00962543, No Iterations 1
GAMG:  Solving for p_rgh, Initial residual = 0.928541, Final residual = 0.00835616, No Iterations 22
Pressure gradient source: uncorrected Ubar = 0.223154, pressure gradient = 4.4249e+06
diagonal:  Solving for rho, Initial residual = 0, Final residual = 0, No Iterations 0
time step continuity errors : sum local = 1.24963, global = -1.23824, cumulative = -1.37371
GAMG:  Solving for p_rgh, Initial residual = 0.129264, Final residual = 0.00113622, No Iterations 17
Pressure gradient source: uncorrected Ubar = 0.223519, pressure gradient = 4.05648e+06
diagonal:  Solving for rho, Initial residual = 0, Final residual = 0, No Iterations 0
time step continuity errors : sum local = 1.24895, global = -1.23824, cumulative = -2.61195
GAMG:  Solving for p_rgh, Initial residual = 0.109752, Final residual = 0.00106549, No Iterations 18
Pressure gradient source: uncorrected Ubar = 0.222595, pressure gradient = 4.98992e+06
diagonal:  Solving for rho, Initial residual = 0, Final residual = 0, No Iterations 0
time step continuity errors : sum local = 1.24817, global = -1.23824, cumulative = -3.8502
PIMPLE: iteration 7
DILUPBiCGStab:  Solving for Ux, Initial residual = 0.0643187, Final residual = 0.00347381, No Iterations 1
DILUPBiCGStab:  Solving for Uy, Initial residual = 0.0759441, Final residual = 0.00319192, No Iterations 1
DILUPBiCGStab:  Solving for Uz, Initial residual = 0.0492185, Final residual = 0.00167253, No Iterations 1
Pressure gradient source: uncorrected Ubar = 0.229614, pressure gradient = -2.91366e+07
DILUPBiCGStab:  Solving for e, Initial residual = 0.992734, Final residual = 0.0548831, No Iterations 1
[4] 
[4] 
[4] --> FOAM FATAL ERROR: 
[4] Negative initial temperature T0: -392.509
[4] 
[4]     From function Foam::scalar Foam::species::thermo<Thermo, Type>::T(Foam::scalar, Foam::scalar, Foam::scalar, Foam::scalar (Foam::species::thermo<Thermo, Type>::*)(Foam::scalar, Foam::scalar) const, Foam::scalar (Foam::species::thermo<Thermo, Type>::*)(Foam::scalar, Foam::scalar) const, Foam::scalar (Foam::species::thermo<Thermo, Type>::*)(Foam::scalar) const) const [with Thermo = Foam::hPolynomialThermo<Foam::icoPolynomial<Foam::specie> >; Type = Foam::sensibleInternalEnergy; Foam::scalar = double; Foam::species::thermo<Thermo, Type> = Foam::species::thermo<Foam::hPolynomialThermo<Foam::icoPolynomial<Foam::specie> >, Foam::sensibleInternalEnergy>]
[4]     in file /home/pawan/OpenFOAM/OpenFOAM-v1912/src/thermophysicalModels/specie/lnInclude/thermoI.H at line 56.
[4] 
FOAM parallel run aborting
[4] 
[5] 
[5] 
[5] --> FOAM FATAL ERROR: 
[5] Negative initial temperature T0: -392.519
[5] 
[5]     From function Foam::scalar Foam::species::thermo<Thermo, Type>::T(Foam::scalar, Foam::scalar, Foam::scalar, Foam::scalar (Foam::species::thermo<Thermo, Type>::*)(Foam::scalar, Foam::scalar) const, Foam::scalar (Foam::species::thermo<Thermo, Type>::*)(Foam::scalar, Foam::scalar) const, Foam::scalar (Foam::species::thermo<Thermo, Type>::*)(Foam::scalar) const) const [with Thermo = Foam::hPolynomialThermo<Foam::icoPolynomial<Foam::specie> >; Type = Foam::sensibleInternalEnergy; Foam::scalar = double; Foam::species::thermo<Thermo, Type> = Foam::species::thermo<Foam::hPolynomialThermo<Foam::icoPolynomial<Foam::specie> >, Foam::sensibleInternalEnergy>]
[5]     in file /home/pawan/OpenFOAM/OpenFOAM-v1912/src/thermophysicalModels/specie/lnInclude/thermoI.H at line 56.
[5] 
FOAM parallel run aborting
[5] 
[0] 
[0] 
[0] --> FOAM FATAL ERROR: 
[0] Negative initial temperature T0: -288.969
[0] 
[0]     From function Foam::scalar Foam::species::thermo<Thermo, Type>::T(Foam::scalar, Foam::scalar, Foam::scalar, Foam::scalar (Foam::species::thermo<Thermo, Type>::*)(Foam::scalar, Foam::scalar) const, Foam::scalar (Foam::species::thermo<Thermo, Type>::*)(Foam::scalar, Foam::scalar) const, Foam::scalar (Foam::species::thermo<Thermo, Type>::*)(Foam::scalar) const) const [with Thermo = Foam::hPolynomialThermo<Foam::icoPolynomial<Foam::specie> >; Type = Foam::sensibleInternalEnergy; Foam::scalar = double; Foam::species::thermo<Thermo, Type> = Foam::species::thermo<Foam::hPolynomialThermo<Foam::icoPolynomial<Foam::specie> >, Foam::sensibleInternalEnergy>]
[0]     in file /home/pawan/OpenFOAM/OpenFOAM-v1912/src/thermophysicalModels/specie/lnInclude/thermoI.H at line 56.
[0] 
FOAM parallel run aborting
[0] 
[1] 
[1] 
[1] --> FOAM FATAL ERROR: 
[1] Negative initial temperature T0: -391.035
[1] 
[1]     From function Foam::scalar Foam::species::thermo<Thermo, Type>::T(Foam::scalar, Foam::scalar, Foam::scalar, Foam::scalar (Foam::species::thermo<Thermo, Type>::*)(Foam::scalar, Foam::scalar) const, Foam::scalar (Foam::species::thermo<Thermo, Type>::*)(Foam::scalar, Foam::scalar) const, Foam::scalar (Foam::species::thermo<Thermo, Type>::*)(Foam::scalar) const) const [with Thermo = Foam::hPolynomialThermo<Foam::icoPolynomial<Foam::specie> >; Type = Foam::sensibleInternalEnergy; Foam::scalar = double; Foam::species::thermo<Thermo, Type> = Foam::species::thermo<Foam::hPolynomialThermo<Foam::icoPolynomial<Foam::specie> >, Foam::sensibleInternalEnergy>]
[1]     in file /home/pawan/OpenFOAM/OpenFOAM-v1912/src/thermophysicalModels/specie/lnInclude/thermoI.H at line 56.
[1] 
FOAM parallel run aborting
[1] 
[2] 
[2] 
[2] --> FOAM FATAL ERROR: 
[2] Negative initial temperature T0: -392.509
[2] 
[2]     From function Foam::scalar Foam::species::thermo<Thermo, Type>::T(Foam::scalar, Foam::scalar, Foam::scalar, Foam::scalar (Foam::species::thermo<Thermo, Type>::*)(Foam::scalar, Foam::scalar) const, Foam::scalar (Foam::species::thermo<Thermo, Type>::*)(Foam::scalar, Foam::scalar) const, Foam::scalar (Foam::species::thermo<Thermo, Type>::*)(Foam::scalar) const) const [with Thermo = Foam::hPolynomialThermo<Foam::icoPolynomial<Foam::specie> >; Type = Foam::sensibleInternalEnergy; Foam::scalar = double; Foam::species::thermo<Thermo, Type> = Foam::species::thermo<Foam::hPolynomialThermo<Foam::icoPolynomial<Foam::specie> >, Foam::sensibleInternalEnergy>]
[2]     in file /home/pawan/OpenFOAM/OpenFOAM-v1912/src/thermophysicalModels/specie/lnInclude/thermoI.H at line 56.
[2] 
FOAM parallel run aborting
[2] 
[3] 
[3] 
[3] --> FOAM FATAL ERROR: 
[3] Negative initial temperature T0: -392.519
[3] 
[3]     From function Foam::scalar Foam::species::thermo<Thermo, Type>::T(Foam::scalar, Foam::scalar, Foam::scalar, Foam::scalar (Foam::species::thermo<Thermo, Type>::*)(Foam::scalar, Foam::scalar) const, Foam::scalar (Foam::species::thermo<Thermo, Type>::*)(Foam::scalar, Foam::scalar) const, Foam::scalar (Foam::species::thermo<Thermo, Type>::*)(Foam::scalar) const) const [with Thermo = Foam::hPolynomialThermo<Foam::icoPolynomial<Foam::specie> >; Type = Foam::sensibleInternalEnergy; Foam::scalar = double; Foam::species::thermo<Thermo, Type> = Foam::species::thermo<Foam::hPolynomialThermo<Foam::icoPolynomial<Foam::specie> >, Foam::sensibleInternalEnergy>]
[3]     in file /home/pawan/OpenFOAM/OpenFOAM-v1912/src/thermophysicalModels/specie/lnInclude/thermoI.H at line 56.
[3] 
FOAM parallel run aborting
[3] 
[4] #0  Foam::error::printStack(Foam::Ostream&)[3] #0  Foam::error::printStack(Foam::Ostream&)[5] #0  Foam::error::printStack(Foam::Ostream&)[0] #0  Foam::error::printStack(Foam::Ostream&)[1] #0  Foam::error::printStack(Foam::Ostream&)[2] #0  Foam::error::printStack(Foam::Ostream&) at ??:?
 at ??:?
 at ??:?
 at ??:?
[4] #1  Foam::error::abort()[2] #1  Foam::error::abort()[5] #1  Foam::error::abort()[0] #1  Foam::error::abort() at ??:?
 at ??:?
[3] #1  Foam::error::abort()[1] #1  Foam::error::abort() at ??:?
 at ??:?
[2] #2  Foam::heRhoThermo<Foam::rhoThermo, Foam::pureMixture<Foam::polynomialTransport<Foam::species::thermo<Foam::hPolynomialThermo<Foam::icoPolynomial<Foam::specie, 8>, 8>, Foam::sensibleInternalEnergy>, 8> > >::calculate(Foam::GeometricField<double, Foam::fvPatchField, Foam::volMesh> const&, Foam::GeometricField<double, Foam::fvPatchField, Foam::volMesh>&, Foam::GeometricField<double, Foam::fvPatchField, Foam::volMesh>&, Foam::GeometricField<double, Foam::fvPatchField, Foam::volMesh>&, Foam::GeometricField<double, Foam::fvPatchField, Foam::volMesh>&, Foam::GeometricField<double, Foam::fvPatchField, Foam::volMesh>&, Foam::GeometricField<double, Foam::fvPatchField, Foam::volMesh>&, bool)[5] #2  Foam::heRhoThermo<Foam::rhoThermo, Foam::pureMixture<Foam::polynomialTransport<Foam::species::thermo<Foam::hPolynomialThermo<Foam::icoPolynomial<Foam::specie, 8>, 8>, Foam::sensibleInternalEnergy>, 8> > >::calculate(Foam::GeometricField<double, Foam::fvPatchField, Foam::volMesh> const&, Foam::GeometricField<double, Foam::fvPatchField, Foam::volMesh>&, Foam::GeometricField<double, Foam::fvPatchField, Foam::volMesh>&, Foam::GeometricField<double, Foam::fvPatchField, Foam::volMesh>&, Foam::GeometricField<double, Foam::fvPatchField, Foam::volMesh>&, Foam::GeometricField<double, Foam::fvPatchField, Foam::volMesh>&, Foam::GeometricField<double, Foam::fvPatchField, Foam::volMesh>&, bool) at ??:?
 at ??:?
[0] #2  Foam::heRhoThermo<Foam::rhoThermo, Foam::pureMixture<Foam::polynomialTransport<Foam::species::thermo<Foam::hPolynomialThermo<Foam::icoPolynomial<Foam::specie, 8>, 8>, Foam::sensibleInternalEnergy>, 8> > >::calculate(Foam::GeometricField<double, Foam::fvPatchField, Foam::volMesh> const&, Foam::GeometricField<double, Foam::fvPatchField, Foam::volMesh>&, Foam::GeometricField<double, Foam::fvPatchField, Foam::volMesh>&, Foam::GeometricField<double, Foam::fvPatchField, Foam::volMesh>&, Foam::GeometricField<double, Foam::fvPatchField, Foam::volMesh>&, Foam::GeometricField<double, Foam::fvPatchField, Foam::volMesh>&, Foam::GeometricField<double, Foam::fvPatchField, Foam::volMesh>&, bool)[4] #2  Foam::heRhoThermo<Foam::rhoThermo, Foam::pureMixture<Foam::polynomialTransport<Foam::species::thermo<Foam::hPolynomialThermo<Foam::icoPolynomial<Foam::specie, 8>, 8>, Foam::sensibleInternalEnergy>, 8> > >::calculate(Foam::GeometricField<double, Foam::fvPatchField, Foam::volMesh> const&, Foam::GeometricField<double, Foam::fvPatchField, Foam::volMesh>&, Foam::GeometricField<double, Foam::fvPatchField, Foam::volMesh>&, Foam::GeometricField<double, Foam::fvPatchField, Foam::volMesh>&, Foam::GeometricField<double, Foam::fvPatchField, Foam::volMesh>&, Foam::GeometricField<double, Foam::fvPatchField, Foam::volMesh>&, Foam::GeometricField<double, Foam::fvPatchField, Foam::volMesh>&, bool) at ??:?
[3] #2   at ??:?
[1] #2  Foam::heRhoThermo<Foam::rhoThermo, Foam::pureMixture<Foam::polynomialTransport<Foam::species::thermo<Foam::hPolynomialThermo<Foam::icoPolynomial<Foam::specie, 8>, 8>, Foam::sensibleInternalEnergy>, 8> > >::calculate(Foam::GeometricField<double, Foam::fvPatchField, Foam::volMesh> const&, Foam::GeometricField<double, Foam::fvPatchField, Foam::volMesh>&, Foam::GeometricField<double, Foam::fvPatchField, Foam::volMesh>&, Foam::GeometricField<double, Foam::fvPatchField, Foam::volMesh>&, Foam::GeometricField<double, Foam::fvPatchField, Foam::volMesh>&, Foam::GeometricField<double, Foam::fvPatchField, Foam::volMesh>&, Foam::GeometricField<double, Foam::fvPatchField, Foam::volMesh>&, bool)Foam::heRhoThermo<Foam::rhoThermo, Foam::pureMixture<Foam::polynomialTransport<Foam::species::thermo<Foam::hPolynomialThermo<Foam::icoPolynomial<Foam::specie, 8>, 8>, Foam::sensibleInternalEnergy>, 8> > >::calculate(Foam::GeometricField<double, Foam::fvPatchField, Foam::volMesh> const&, Foam::GeometricField<double, Foam::fvPatchField, Foam::volMesh>&, Foam::GeometricField<double, Foam::fvPatchField, Foam::volMesh>&, Foam::GeometricField<double, Foam::fvPatchField, Foam::volMesh>&, Foam::GeometricField<double, Foam::fvPatchField, Foam::volMesh>&, Foam::GeometricField<double, Foam::fvPatchField, Foam::volMesh>&, Foam::GeometricField<double, Foam::fvPatchField, Foam::volMesh>&, bool) at ??:?
 at ??:?
[2] #3  Foam::heRhoThermo<Foam::rhoThermo, Foam::pureMixture<Foam::polynomialTransport<Foam::species::thermo<Foam::hPolynomialThermo<Foam::icoPolynomial<Foam::specie, 8>, 8>, Foam::sensibleInternalEnergy>, 8> > >::correct()[5] #3  Foam::heRhoThermo<Foam::rhoThermo, Foam::pureMixture<Foam::polynomialTransport<Foam::species::thermo<Foam::hPolynomialThermo<Foam::icoPolynomial<Foam::specie, 8>, 8>, Foam::sensibleInternalEnergy>, 8> > >::correct() at ??:?
 at ??:?
[0] #3  Foam::heRhoThermo<Foam::rhoThermo, Foam::pureMixture<Foam::polynomialTransport<Foam::species::thermo<Foam::hPolynomialThermo<Foam::icoPolynomial<Foam::specie, 8>, 8>, Foam::sensibleInternalEnergy>, 8> > >::correct()[4] #3  Foam::heRhoThermo<Foam::rhoThermo, Foam::pureMixture<Foam::polynomialTransport<Foam::species::thermo<Foam::hPolynomialThermo<Foam::icoPolynomial<Foam::specie, 8>, 8>, Foam::sensibleInternalEnergy>, 8> > >::correct() at ??:?
[3] #3  Foam::heRhoThermo<Foam::rhoThermo, Foam::pureMixture<Foam::polynomialTransport<Foam::species::thermo<Foam::hPolynomialThermo<Foam::icoPolynomial<Foam::specie, 8>, 8>, Foam::sensibleInternalEnergy>, 8> > >::correct() at ??:?
[1] #3  Foam::heRhoThermo<Foam::rhoThermo, Foam::pureMixture<Foam::polynomialTransport<Foam::species::thermo<Foam::hPolynomialThermo<Foam::icoPolynomial<Foam::specie, 8>, 8>, Foam::sensibleInternalEnergy>, 8> > >::correct() at ??:?
[2] #4   at ??:?
[5] #4   at ??:?
[3] #4  ?? at ??:?
 at ??:?
[4] #4  [0] #4  ? at ??:?
[1] #4   at ??:?
[2] #5  __libc_start_main?? at ??:?
[5] #5  __libc_start_main? at ??:?
[3] #5  __libc_start_main in /lib/x86_64-linux-gnu/libc.so.6
[2] #6   at ??:?
 at ??:?
[4] #5  __libc_start_main[0] #5  __libc_start_main in /lib/x86_64-linux-gnu/libc.so.6
[5] #6   at ??:?
[1] #5  __libc_start_main? in /lib/x86_64-linux-gnu/libc.so.6
[3] #6  ? in /lib/x86_64-linux-gnu/libc.so.6
 in /lib/x86_64-linux-gnu/libc.so.6
[0] #6  [4] #6   in /lib/x86_64-linux-gnu/libc.so.6
[1] #6  ? at ??:?
 at ??:?
--------------------------------------------------------------------------
MPI_ABORT was invoked on rank 2 in communicator MPI_COMM_WORLD 
with errorcode 1.

NOTE: invoking MPI_ABORT causes Open MPI to kill all MPI processes.
You may or may not see output from other processes, depending on
exactly when Open MPI kills them.
--------------------------------------------------------------------------
??? at ??:?
 at ??:?
 at ??:?
 at ??:?
[theoong-NH5x-7xDCx-DDx:294371] 5 more processes have sent help message help-mpi-api.txt / mpi-abort
[theoong-NH5x-7xDCx-DDx:294371] Set MCA parameter "orte_base_help_aggregate" to 0 to see all help / error messages
