/*---------------------------------------------------------------------------*\
| =========                 |                                                 |
| \\      /  F ield         | OpenFOAM: The Open Source CFD Toolbox           |
|  \\    /   O peration     | Version:  v1912                                 |
|   \\  /    A nd           | Website:  www.openfoam.com                      |
|    \\/     M anipulation  |                                                 |
\*---------------------------------------------------------------------------*/
Build  : _f3950763fe-20191219 OPENFOAM=1912
Arch   : "LSB;label=32;scalar=64"
Exec   : buoyantBoussinesqPimpleFoam -parallel
Date   : Aug 19 2020
Time   : 13:57:41
Host   : theoong-NH5x-7xDCx-DDx
PID    : 294677
I/O    : uncollated
Case   : /mnt/200GB/Github/turbulenceModelling/OpenFOAM_Examples/Quasi_DNS_Dowtherm_Mixed_Conv/exptCases/expt_IDDESCase_bousinesq
nProcs : 6
Hosts  :
(
    (theoong-NH5x-7xDCx-DDx 6)
)
Pstream initialized with:
    floatTransfer      : 0
    nProcsSimpleSum    : 0
    commsType          : nonBlocking
    polling iterations : 0
trapFpe: Floating point exception trapping enabled (FOAM_SIGFPE).
fileModificationChecking : Monitoring run-time modified files using timeStampMaster (fileModificationSkew 10)
allowSystemOperations : Allowing user-supplied system call operations

// * * * * * * * * * * * * * * * * * * * * * * * * * * * * * * * * * * * * * //
Create time

Create mesh for time = 0


PIMPLE: max iterations = 1000
    field U	: relTol 0, tolerance 0.05
    field p	: relTol 0, tolerance 0.05

Reading thermophysical properties

Reading field T

Reading field p_rgh

Reading field U

Reading/calculating face flux field phi

Selecting incompressible transport model Newtonian
Creating turbulence model

Selecting turbulence model type LES
Selecting LES turbulence model kOmegaSSTIDDES
Selecting LES delta type IDDESDelta
Selecting LES hmax type maxDeltaxyzCubeRoot
Selecting patchDistMethod meshWave
--> FOAM Warning : 
    From function const volVectorField& Foam::wallDist::n() const
    in file fvMesh/wallDist/wallDist/wallDist.C at line 202
    n requested but 'nRequired' not specified in the wallDist dictionary
    Recalculating y and n fields.
Creating finite volume options from "constant/fvOptions"

Selecting finite volume options type meanVelocityForce
    Source: momentumSource
    - selecting all cells
    - selected 204768 cell(s) with volume 8.1e-05
    Initial pressure gradient = 0

LES
{
    turbulence      on;
    LESModel        kOmegaSSTIDDES;
    printCoeffs     on;
    delta           IDDESDelta;
    IDDESDeltaCoeffs
    {
        hmax            maxDeltaxyzCubeRoot;
        maxDeltaxyzCubeRootCoeffs
        {
        }
    }
    Prt             0.85;
    Ce              1.048;
    alphaK1         0.85;
    alphaK2         1;
    alphaOmega1     0.5;
    alphaOmega2     0.856;
    gamma1          0.555556;
    gamma2          0.44;
    beta1           0.075;
    beta2           0.0828;
    betaStar        0.09;
    a1              0.31;
    b1              1;
    c1              10;
    F3              false;
    decayControl    false;
    kInf            0;
    omegaInf        0;
    kappa           0.41;
    CDESkom         0.82;
    CDESkeps        0.6;
    Cdt1            20;
    Cdt2            3;
    Cl              5;
    Ct              1.87;
}

Reading field alphat


Reading g

Reading hRef
Calculating field g.h

[0] [4] [5] [1] 
[1] 
[1] --> FOAM FATAL ERROR: 
[1] Different dimensions for '(a + b)'
     dimensions : [1 -1 -2 0 0 0 0] != [0 2 -2 0 0 0 0]
[1] 
[1] 
[1]     From function bool Foam::checkDims(const char*, const Foam::dimensionSet&, const Foam::dimensionSet&)
[1]     in file dimensionSet/dimensionSet.C at line 56.
[1] 
FOAM parallel run aborting
[1] 
[2] 
[2] 
[2] --> FOAM FATAL ERROR: 
[2] Different dimensions for '(a + b)'
     dimensions : [1 -1 -2 0 0 0 0] != [0 2 -2 0 0 0 0]
[2] 
[2] 
[2]     From function bool Foam::checkDims(const char*, const Foam::dimensionSet&, const Foam::dimensionSet&)
[2]     in file dimensionSet/dimensionSet.C at line 56.
[2] 
FOAM parallel run aborting
[2] 
[3] 
[3] 
[3] --> FOAM FATAL ERROR: 
[3] Different dimensions for '(a + b)'
     dimensions : [1 -1 -2 0 0 0 0] != [0 2 -2 0 0 0 0]
[3] 
[3] 
[3]     From function bool Foam::checkDims(const char*, const Foam::dimensionSet&, const Foam::dimensionSet&)
[3]     in file dimensionSet/dimensionSet.C at line 56.
[3] 
FOAM parallel run aborting
[3] 

[5] 
[5] --> FOAM FATAL ERROR: 
[5] Different dimensions for '(a + b)'
     dimensions : [1 -1 -2 0 0 0 0] != [0 2 -2 0 0 0 0]
[5] 
[5] 
[5]     From function bool Foam::checkDims(const char*, const Foam::dimensionSet&, const Foam::dimensionSet&)
[5]     in file dimensionSet/dimensionSet.C at line 56.
[5] 
FOAM parallel run aborting
[5] 

[0] 
[0] --> FOAM FATAL ERROR: 
[0] Different dimensions for '(a + b)'
     dimensions : [1 -1 -2 0 0 0 0] != [0 2 -2 0 0 0 0]
[0] 
[0] 
[0]     From function bool Foam::checkDims(const char*, const Foam::dimensionSet&, const Foam::dimensionSet&)
[0]     in file dimensionSet/dimensionSet.C at line 56.
[0] 
FOAM parallel run aborting
[0] 

[4] 
[4] --> FOAM FATAL ERROR: 
[4] Different dimensions for '(a + b)'
     dimensions : [1 -1 -2 0 0 0 0] != [0 2 -2 0 0 0 0]
[4] 
[4] 
[4]     From function bool Foam::checkDims(const char*, const Foam::dimensionSet&, const Foam::dimensionSet&)
[4]     in file dimensionSet/dimensionSet.C at line 56.
[4] 
FOAM parallel run aborting
[4] 
[4] #0  Foam::error::printStack(Foam::Ostream&)[3] #0  Foam::error::printStack(Foam::Ostream&)[1] #0  Foam::error::printStack(Foam::Ostream&)[2] #0  Foam::error::printStack(Foam::Ostream&)[5] #0  Foam::error::printStack(Foam::Ostream&)[0] #0  Foam::error::printStack(Foam::Ostream&) at ??:?
 at ??:?
 at ??:?
[4] #1  Foam::error::abort() at ??:?
[0] #1  Foam::error::abort()[2] #1  Foam::error::abort()[5] #1  Foam::error::abort() at ??:?
[1] #1  Foam::error::abort() at ??:?
[3] #1  Foam::error::abort() at ??:?
 at ??:?
 at ??:?
[0] #2   at ??:?
[5] #2  Foam::operator+(Foam::dimensionSet const&, Foam::dimensionSet const&)Foam::operator+(Foam::dimensionSet const&, Foam::dimensionSet const&)[2] #2  Foam::operator+(Foam::dimensionSet const&, Foam::dimensionSet const&)[4] #2  Foam::operator+(Foam::dimensionSet const&, Foam::dimensionSet const&) at ??:?
[3] #2  Foam::operator+(Foam::dimensionSet const&, Foam::dimensionSet const&) at ??:?
[1] #2  Foam::operator+(Foam::dimensionSet const&, Foam::dimensionSet const&) at ??:?
[4] #3   at ??:?
[2] #3   at ??:?
[0] #3   at ??:?
[3] #3   at ??:?
[5] #3   at ??:?
[1] #3  Foam::tmp<Foam::GeometricField<Foam::typeOfSum<double, double>::type, Foam::fvPatchField, Foam::volMesh> > Foam::operator+<double, double, Foam::fvPatchField, Foam::volMesh>(Foam::GeometricField<double, Foam::fvPatchField, Foam::volMesh> const&, Foam::tmp<Foam::GeometricField<double, Foam::fvPatchField, Foam::volMesh> > const&)Foam::tmp<Foam::GeometricField<Foam::typeOfSum<double, double>::type, Foam::fvPatchField, Foam::volMesh> > Foam::operator+<double, double, Foam::fvPatchField, Foam::volMesh>(Foam::GeometricField<double, Foam::fvPatchField, Foam::volMesh> const&, Foam::tmp<Foam::GeometricField<double, Foam::fvPatchField, Foam::volMesh> > const&)Foam::tmp<Foam::GeometricField<Foam::typeOfSum<double, double>::type, Foam::fvPatchField, Foam::volMesh> > Foam::operator+<double, double, Foam::fvPatchField, Foam::volMesh>(Foam::GeometricField<double, Foam::fvPatchField, Foam::volMesh> const&, Foam::tmp<Foam::GeometricField<double, Foam::fvPatchField, Foam::volMesh> > const&)Foam::tmp<Foam::GeometricField<Foam::typeOfSum<double, double>::type, Foam::fvPatchField, Foam::volMesh> > Foam::operator+<double, double, Foam::fvPatchField, Foam::volMesh>(Foam::GeometricField<double, Foam::fvPatchField, Foam::volMesh> const&, Foam::tmp<Foam::GeometricField<double, Foam::fvPatchField, Foam::volMesh> > const&)Foam::tmp<Foam::GeometricField<Foam::typeOfSum<double, double>::type, Foam::fvPatchField, Foam::volMesh> > Foam::operator+<double, double, Foam::fvPatchField, Foam::volMesh>(Foam::GeometricField<double, Foam::fvPatchField, Foam::volMesh> const&, Foam::tmp<Foam::GeometricField<double, Foam::fvPatchField, Foam::volMesh> > const&)Foam::tmp<Foam::GeometricField<Foam::typeOfSum<double, double>::type, Foam::fvPatchField, Foam::volMesh> > Foam::operator+<double, double, Foam::fvPatchField, Foam::volMesh>(Foam::GeometricField<double, Foam::fvPatchField, Foam::volMesh> const&, Foam::tmp<Foam::GeometricField<double, Foam::fvPatchField, Foam::volMesh> > const&) at ??:?
[3] #4   at ??:?
[2] #4   at ??:?
[4] #4   at ??:?
[0] #4   at ??:?
[5] #4  ?? at ??:?
[1] #4  ???? at ??:?
[3] #5  __libc_start_main at ??:?
[2] #5  __libc_start_main at ??:?
[4] #5  __libc_start_main at ??:?
[0] #5  __libc_start_main at ??:?
[5] #5  __libc_start_main at ??:?
[1] #5  __libc_start_main in /lib/x86_64-linux-gnu/libc.so.6
[3] #6   in /lib/x86_64-linux-gnu/libc.so.6
[2] #6   in /lib/x86_64-linux-gnu/libc.so.6
[0] #6   in /lib/x86_64-linux-gnu/libc.so.6
[5] #6  ? in /lib/x86_64-linux-gnu/libc.so.6
[1] #6  ? in /lib/x86_64-linux-gnu/libc.so.6
[4] #6  ??? at ??:?
--------------------------------------------------------------------------
MPI_ABORT was invoked on rank 2 in communicator MPI_COMM_WORLD 
with errorcode 1.

NOTE: invoking MPI_ABORT causes Open MPI to kill all MPI processes.
You may or may not see output from other processes, depending on
exactly when Open MPI kills them.
--------------------------------------------------------------------------
? at ??:?
 at ??:?
 at ??:?
 at ??:?
 at ??:?
[theoong-NH5x-7xDCx-DDx:294675] 5 more processes have sent help message help-mpi-api.txt / mpi-abort
[theoong-NH5x-7xDCx-DDx:294675] Set MCA parameter "orte_base_help_aggregate" to 0 to see all help / error messages
